science/ieee8500_paper_scale_only_final/evidence/IEEE8500_PCC_Overlay.dss
! IEEE8500 additive PCC overlay. Transformers only; final host authority immutable.
! 12.47/0.48 kV adapts the V41 static 4.16/0.48 kV template to IEEE8500.
! %Rs=[0.8 0.2] explicitly resolves template %R=0.8 on winding 1.
! No Load/Generator/Storage/PCS/PCC-link line objects are created.

New Transformer.PCC8500_AIDC_AIDC01_TX Phases=3 Windings=2 XHL=5.75 %Rs=[0.8 0.2] %NoLoadLoss=0 %Imag=0
~ Buses=[m1026834.1.2.3 pcc8500_aidc_aidc01_lv.1.2.3] Conns=[wye wye]
~ kVs=[12.47 0.48] kVAs=[1500 1500]

New Transformer.PCC8500_MESS_AIDC01_TX Phases=3 Windings=2 XHL=5.75 %Rs=[0.8 0.2] %NoLoadLoss=0 %Imag=0
~ Buses=[l3234149.1.2.3 pcc8500_mess_aidc01_lv.1.2.3] Conns=[wye wye]
~ kVs=[12.47 0.48] kVAs=[750 750]

New Transformer.PCC8500_AIDC_AIDC02_TX Phases=3 Windings=2 XHL=5.75 %Rs=[0.8 0.2] %NoLoadLoss=0 %Imag=0
~ Buses=[d6023352-1_int.1.2.3 pcc8500_aidc_aidc02_lv.1.2.3] Conns=[wye wye]
~ kVs=[12.47 0.48] kVAs=[1500 1500]

New Transformer.PCC8500_MESS_AIDC02_TX Phases=3 Windings=2 XHL=5.75 %Rs=[0.8 0.2] %NoLoadLoss=0 %Imag=0
~ Buses=[e182733.1.2.3 pcc8500_mess_aidc02_lv.1.2.3] Conns=[wye wye]
~ kVs=[12.47 0.48] kVAs=[750 750]

New Transformer.PCC8500_AIDC_AIDC03_TX Phases=3 Windings=2 XHL=5.75 %Rs=[0.8 0.2] %NoLoadLoss=0 %Imag=0
~ Buses=[l3234149.1.2.3 pcc8500_aidc_aidc03_lv.1.2.3] Conns=[wye wye]
~ kVs=[12.47 0.48] kVAs=[1500 1500]

New Transformer.PCC8500_MESS_AIDC03_TX Phases=3 Windings=2 XHL=5.75 %Rs=[0.8 0.2] %NoLoadLoss=0 %Imag=0
~ Buses=[m1027055.1.2.3 pcc8500_mess_aidc03_lv.1.2.3] Conns=[wye wye]
~ kVs=[12.47 0.48] kVAs=[750 750]

New Transformer.PCC8500_AIDC_AIDC04_TX Phases=3 Windings=2 XHL=5.75 %Rs=[0.8 0.2] %NoLoadLoss=0 %Imag=0
~ Buses=[m4113347.1.2.3 pcc8500_aidc_aidc04_lv.1.2.3] Conns=[wye wye]
~ kVs=[12.47 0.48] kVAs=[1500 1500]

New Transformer.PCC8500_MESS_AIDC04_TX Phases=3 Windings=2 XHL=5.75 %Rs=[0.8 0.2] %NoLoadLoss=0 %Imag=0
~ Buses=[m1069411.1.2.3 pcc8500_mess_aidc04_lv.1.2.3] Conns=[wye wye]
~ kVs=[12.47 0.48] kVAs=[750 750]

New Transformer.PCC8500_AIDC_AIDC05_TX Phases=3 Windings=2 XHL=5.75 %Rs=[0.8 0.2] %NoLoadLoss=0 %Imag=0
~ Buses=[m1047763.1.2.3 pcc8500_aidc_aidc05_lv.1.2.3] Conns=[wye wye]
~ kVs=[12.47 0.48] kVAs=[1500 1500]

New Transformer.PCC8500_MESS_AIDC05_TX Phases=3 Windings=2 XHL=5.75 %Rs=[0.8 0.2] %NoLoadLoss=0 %Imag=0
~ Buses=[l2688693.1.2.3 pcc8500_mess_aidc05_lv.1.2.3] Conns=[wye wye]
~ kVs=[12.47 0.48] kVAs=[750 750]

New Transformer.PCC8500_AIDC_AIDC06_TX Phases=3 Windings=2 XHL=5.75 %Rs=[0.8 0.2] %NoLoadLoss=0 %Imag=0
~ Buses=[m1026780.1.2.3 pcc8500_aidc_aidc06_lv.1.2.3] Conns=[wye wye]
~ kVs=[12.47 0.48] kVAs=[1500 1500]

New Transformer.PCC8500_MESS_AIDC06_TX Phases=3 Windings=2 XHL=5.75 %Rs=[0.8 0.2] %NoLoadLoss=0 %Imag=0
~ Buses=[m1142814.1.2.3 pcc8500_mess_aidc06_lv.1.2.3] Conns=[wye wye]
~ kVs=[12.47 0.48] kVAs=[750 750]

New Transformer.PCC8500_AIDC_AIDC07_TX Phases=3 Windings=2 XHL=5.75 %Rs=[0.8 0.2] %NoLoadLoss=0 %Imag=0
~ Buses=[n1142100.1.2.3 pcc8500_aidc_aidc07_lv.1.2.3] Conns=[wye wye]
~ kVs=[12.47 0.48] kVAs=[1500 1500]

New Transformer.PCC8500_MESS_AIDC07_TX Phases=3 Windings=2 XHL=5.75 %Rs=[0.8 0.2] %NoLoadLoss=0 %Imag=0
~ Buses=[m1026690.1.2.3 pcc8500_mess_aidc07_lv.1.2.3] Conns=[wye wye]
~ kVs=[12.47 0.48] kVAs=[750 750]

New Transformer.PCC8500_AIDC_AIDC08_TX Phases=3 Windings=2 XHL=5.75 %Rs=[0.8 0.2] %NoLoadLoss=0 %Imag=0
~ Buses=[l3122821.1.2.3 pcc8500_aidc_aidc08_lv.1.2.3] Conns=[wye wye]
~ kVs=[12.47 0.48] kVAs=[1500 1500]

New Transformer.PCC8500_MESS_AIDC08_TX Phases=3 Windings=2 XHL=5.75 %Rs=[0.8 0.2] %NoLoadLoss=0 %Imag=0
~ Buses=[l3123452.1.2.3 pcc8500_mess_aidc08_lv.1.2.3] Conns=[wye wye]
~ kVs=[12.47 0.48] kVAs=[750 750]

New Transformer.PCC8500_AIDC_AIDC09_TX Phases=3 Windings=2 XHL=5.75 %Rs=[0.8 0.2] %NoLoadLoss=0 %Imag=0
~ Buses=[m1047566.1.2.3 pcc8500_aidc_aidc09_lv.1.2.3] Conns=[wye wye]
~ kVs=[12.47 0.48] kVAs=[1500 1500]

New Transformer.PCC8500_MESS_AIDC09_TX Phases=3 Windings=2 XHL=5.75 %Rs=[0.8 0.2] %NoLoadLoss=0 %Imag=0
~ Buses=[l2728247.1.2.3 pcc8500_mess_aidc09_lv.1.2.3] Conns=[wye wye]
~ kVs=[12.47 0.48] kVAs=[750 750]

New Transformer.PCC8500_AIDC_AIDC10_TX Phases=3 Windings=2 XHL=5.75 %Rs=[0.8 0.2] %NoLoadLoss=0 %Imag=0
~ Buses=[l2814529.1.2.3 pcc8500_aidc_aidc10_lv.1.2.3] Conns=[wye wye]
~ kVs=[12.47 0.48] kVAs=[1500 1500]

New Transformer.PCC8500_MESS_AIDC10_TX Phases=3 Windings=2 XHL=5.75 %Rs=[0.8 0.2] %NoLoadLoss=0 %Imag=0
~ Buses=[l2973833.1.2.3 pcc8500_mess_aidc10_lv.1.2.3] Conns=[wye wye]
~ kVs=[12.47 0.48] kVAs=[750 750]

New Transformer.PCC8500_AIDC_AIDC11_TX Phases=3 Windings=2 XHL=5.75 %Rs=[0.8 0.2] %NoLoadLoss=0 %Imag=0
~ Buses=[l2992624.1.2.3 pcc8500_aidc_aidc11_lv.1.2.3] Conns=[wye wye]
~ kVs=[12.47 0.48] kVAs=[1500 1500]

New Transformer.PCC8500_MESS_AIDC11_TX Phases=3 Windings=2 XHL=5.75 %Rs=[0.8 0.2] %NoLoadLoss=0 %Imag=0
~ Buses=[m1047763.1.2.3 pcc8500_mess_aidc11_lv.1.2.3] Conns=[wye wye]
~ kVs=[12.47 0.48] kVAs=[750 750]

New Transformer.PCC8500_AIDC_AIDC12_TX Phases=3 Windings=2 XHL=5.75 %Rs=[0.8 0.2] %NoLoadLoss=0 %Imag=0
~ Buses=[e182733.1.2.3 pcc8500_aidc_aidc12_lv.1.2.3] Conns=[wye wye]
~ kVs=[12.47 0.48] kVAs=[1500 1500]

New Transformer.PCC8500_MESS_AIDC12_TX Phases=3 Windings=2 XHL=5.75 %Rs=[0.8 0.2] %NoLoadLoss=0 %Imag=0
~ Buses=[e192258.1.2.3 pcc8500_mess_aidc12_lv.1.2.3] Conns=[wye wye]
~ kVs=[12.47 0.48] kVAs=[750 750]

New Transformer.PCC8500_MESS_STA01_TX Phases=3 Windings=2 XHL=5.75 %Rs=[0.8 0.2] %NoLoadLoss=0 %Imag=0
~ Buses=[m1142810.1.2.3 pcc8500_mess_sta01_lv.1.2.3] Conns=[wye wye]
~ kVs=[12.47 0.48] kVAs=[750 750]

New Transformer.PCC8500_MESS_STA02_TX Phases=3 Windings=2 XHL=5.75 %Rs=[0.8 0.2] %NoLoadLoss=0 %Imag=0
~ Buses=[m1166366.1.2.3 pcc8500_mess_sta02_lv.1.2.3] Conns=[wye wye]
~ kVs=[12.47 0.48] kVAs=[750 750]

New Transformer.PCC8500_MESS_STA03_TX Phases=3 Windings=2 XHL=5.75 %Rs=[0.8 0.2] %NoLoadLoss=0 %Imag=0
~ Buses=[l3030197.1.2.3 pcc8500_mess_sta03_lv.1.2.3] Conns=[wye wye]
~ kVs=[12.47 0.48] kVAs=[750 750]

New Transformer.PCC8500_MESS_STA04_TX Phases=3 Windings=2 XHL=5.75 %Rs=[0.8 0.2] %NoLoadLoss=0 %Imag=0
~ Buses=[m1089115.1.2.3 pcc8500_mess_sta04_lv.1.2.3] Conns=[wye wye]
~ kVs=[12.47 0.48] kVAs=[750 750]

New Transformer.PCC8500_MESS_STA05_TX Phases=3 Windings=2 XHL=5.75 %Rs=[0.8 0.2] %NoLoadLoss=0 %Imag=0
~ Buses=[l2990826.1.2.3 pcc8500_mess_sta05_lv.1.2.3] Conns=[wye wye]
~ kVs=[12.47 0.48] kVAs=[750 750]

New Transformer.PCC8500_MESS_STA06_TX Phases=3 Windings=2 XHL=5.75 %Rs=[0.8 0.2] %NoLoadLoss=0 %Imag=0
~ Buses=[m1069310.1.2.3 pcc8500_mess_sta06_lv.1.2.3] Conns=[wye wye]
~ kVs=[12.47 0.48] kVAs=[750 750]

New Transformer.PCC8500_MESS_STA07_TX Phases=3 Windings=2 XHL=5.75 %Rs=[0.8 0.2] %NoLoadLoss=0 %Imag=0
~ Buses=[m1009763.1.2.3 pcc8500_mess_sta07_lv.1.2.3] Conns=[wye wye]
~ kVs=[12.47 0.48] kVAs=[750 750]

New Transformer.PCC8500_MESS_STA08_TX Phases=3 Windings=2 XHL=5.75 %Rs=[0.8 0.2] %NoLoadLoss=0 %Imag=0
~ Buses=[e182732.1.2.3 pcc8500_mess_sta08_lv.1.2.3] Conns=[wye wye]
~ kVs=[12.47 0.48] kVAs=[750 750]

New Transformer.PCC8500_MESS_STA09_TX Phases=3 Windings=2 XHL=5.75 %Rs=[0.8 0.2] %NoLoadLoss=0 %Imag=0
~ Buses=[m1026855.1.2.3 pcc8500_mess_sta09_lv.1.2.3] Conns=[wye wye]
~ kVs=[12.47 0.48] kVAs=[750 750]

New Transformer.PCC8500_MESS_STA10_TX Phases=3 Windings=2 XHL=5.75 %Rs=[0.8 0.2] %NoLoadLoss=0 %Imag=0
~ Buses=[e182746.1.2.3 pcc8500_mess_sta10_lv.1.2.3] Conns=[wye wye]
~ kVs=[12.47 0.48] kVAs=[750 750]

New Transformer.PCC8500_MESS_STA11_TX Phases=3 Windings=2 XHL=5.75 %Rs=[0.8 0.2] %NoLoadLoss=0 %Imag=0
~ Buses=[r18241.1.2.3 pcc8500_mess_sta11_lv.1.2.3] Conns=[wye wye]
~ kVs=[12.47 0.48] kVAs=[750 750]

New Transformer.PCC8500_MESS_STA12_TX Phases=3 Windings=2 XHL=5.75 %Rs=[0.8 0.2] %NoLoadLoss=0 %Imag=0
~ Buses=[m1027043.1.2.3 pcc8500_mess_sta12_lv.1.2.3] Conns=[wye wye]
~ kVs=[12.47 0.48] kVAs=[750 750]

